Version 4
SHEET 1 2084 820
WIRE 1600 -352 992 -352
WIRE 672 -304 544 -304
WIRE 912 -304 736 -304
WIRE 1072 -304 1008 -304
WIRE 1072 -272 1072 -304
WIRE -144 -224 -256 -224
WIRE 1600 -208 1600 -352
WIRE 1648 -208 1600 -208
WIRE -256 -192 -256 -224
WIRE -144 -192 -144 -224
WIRE 544 -192 544 -304
WIRE 128 -176 -96 -176
WIRE 352 -176 208 -176
WIRE 992 -160 976 -160
WIRE 1136 -160 1072 -160
WIRE 1264 -160 1136 -160
WIRE 1408 -160 1344 -160
WIRE 1648 -160 1648 -208
WIRE 1600 -144 1552 -144
WIRE 1408 -128 1408 -160
WIRE 352 -112 352 -176
WIRE 1552 -112 1552 -144
WIRE 1280 -48 1152 -48
WIRE 1424 -48 1360 -48
WIRE 1648 -48 1648 -80
WIRE 1264 48 1168 48
WIRE 1376 48 1344 48
WIRE -144 80 -144 -96
WIRE -96 80 -144 80
WIRE 0 80 -32 80
WIRE 144 80 0 80
WIRE 208 80 144 80
WIRE 544 80 544 -112
WIRE 544 80 464 80
WIRE 640 80 544 80
WIRE 928 80 896 80
WIRE 976 80 976 -160
WIRE 976 80 928 80
WIRE 1072 80 976 80
WIRE 1152 80 1152 -48
WIRE 1152 80 1072 80
WIRE 1168 80 1168 48
WIRE 1168 80 1152 80
WIRE 1232 80 1168 80
WIRE 144 112 144 80
WIRE -144 128 -144 80
WIRE 0 128 0 80
WIRE 1232 128 1232 80
WIRE 1200 144 1104 144
WIRE 928 160 928 80
WIRE 1376 160 1376 48
WIRE 1376 160 1264 160
WIRE 1488 160 1376 160
WIRE 1600 160 1600 -96
WIRE 1600 160 1552 160
WIRE 1136 176 1136 -160
WIRE 1200 176 1136 176
WIRE 1424 192 1424 -48
WIRE 1488 192 1424 192
WIRE 0 208 0 192
WIRE 144 208 144 192
WIRE 336 208 336 176
WIRE 768 208 768 176
WIRE -144 224 -144 208
WIRE 1232 224 1232 192
WIRE 1072 304 1072 80
WIRE 1216 304 1072 304
WIRE -144 336 -144 304
WIRE 928 336 928 240
WIRE 1104 336 1104 144
WIRE 1104 336 928 336
WIRE 928 384 928 336
WIRE 1104 384 928 384
WIRE 928 448 928 384
WIRE 928 560 928 528
WIRE 1216 592 1216 304
WIRE 1104 608 1104 384
WIRE 1184 608 1104 608
WIRE 1424 624 1424 192
WIRE 1424 624 1248 624
WIRE 1184 640 1024 640
WIRE 1024 672 1024 640
WIRE 1216 672 1216 656
WIRE 1024 800 1024 752
FLAG 352 -112 0
FLAG -144 336 0
FLAG 1024 800 0
FLAG 1232 224 0
FLAG 1216 672 0
FLAG 928 560 0
FLAG 1408 -128 0
FLAG 1072 -272 0
FLAG 0 208 0
FLAG 144 208 0
FLAG -256 -192 0
FLAG 336 208 0
FLAG 768 208 0
FLAG 1648 -48 0
FLAG 1552 -112 0
DATAFLAG 976 -80 ""
DATAFLAG 848 -304 ""
DATAFLAG 544 80 ""
DATAFLAG 992 80 ""
DATAFLAG 1136 -96 ""
DATAFLAG 64 80 ""
DATAFLAG 544 -256 ""
DATAFLAG 928 368 ""
SYMBOL voltage -144 208 R0
WINDOW 123 0 0 Left 0
WINDOW 39 24 124 Left 2
SYMATTR SpiceLine Rser=0.1
SYMATTR InstName V1
SYMATTR Value 18V
SYMBOL schottky -96 96 R270
WINDOW 0 32 32 VTop 2
WINDOW 3 0 32 VBottom 2
SYMATTR InstName D1
SYMATTR Value 1N5819
SYMATTR Description Diode
SYMATTR Type diode
SYMBOL Misc\\battery 144 96 R0
SYMATTR InstName V2
SYMATTR Value 14.8V
SYMBOL ind -160 112 R0
SYMATTR InstName L1
SYMATTR Value 100µ
SYMBOL nmos -96 -96 R180
SYMATTR InstName M1
SYMBOL Comparators\\LT1017 1232 160 R0
SYMATTR InstName Comparator1
SYMBOL res 1088 -176 R90
WINDOW 0 0 56 VBottom 2
WINDOW 3 32 56 VTop 2
SYMATTR InstName R_fixed
SYMATTR Value 30k
SYMBOL res 1360 -176 R90
WINDOW 0 0 56 VBottom 2
WINDOW 3 32 56 VTop 2
SYMATTR InstName LDR
SYMATTR Value 100k
SYMBOL voltage 1024 656 R0
WINDOW 3 -104 113 Left 2
WINDOW 123 0 0 Left 0
WINDOW 39 0 0 Left 0
SYMATTR Value PULSE(0 5 0 1u 1u 1 2)
SYMATTR InstName Vpir
SYMBOL Digital\\and 1520 112 R0
WINDOW 0 -69 2 Left 2
SYMATTR InstName AND-GATE
SYMBOL res 1360 32 R90
WINDOW 0 0 56 VBottom 2
WINDOW 3 32 56 VTop 2
SYMATTR InstName R3
SYMATTR Value 1k
SYMBOL res 560 -96 R180
WINDOW 0 36 76 Left 2
WINDOW 3 36 40 Left 2
SYMATTR InstName R_lim
SYMATTR Value 4.57
SYMBOL nmos 912 -352 M90
WINDOW 0 76 60 VLeft 2
WINDOW 3 112 147 VLeft 2
SYMATTR InstName M2
SYMATTR Value Si4816BDY_Q1
SYMBOL cap -16 128 R0
SYMATTR InstName C1
SYMATTR Value 470µ
SYMBOL voltage 112 -176 R270
WINDOW 0 32 56 VTop 2
WINDOW 3 -32 56 VBottom 2
WINDOW 123 0 0 Left 0
WINDOW 39 0 0 Left 0
SYMATTR InstName Vpwm
SYMATTR Value PULSE(0 10 0 1n 1n 10u 20u)
SYMBOL Comparators\\LT1017 1216 624 R0
SYMATTR InstName Comparator2
SYMBOL res 912 144 R0
SYMATTR InstName R1
SYMATTR Value 430
SYMBOL res 912 432 R0
SYMATTR InstName R2
SYMATTR Value 1k
SYMBOL res 1376 -64 R90
WINDOW 0 0 56 VBottom 2
WINDOW 3 32 56 VTop 2
SYMATTR InstName R5
SYMATTR Value 1k
SYMBOL PowerProducts\\LT1083-12 336 80 R0
SYMATTR InstName 12V_Regulator
SYMBOL PowerProducts\\LT1085-5 768 80 R0
SYMATTR InstName 5V_Regulator
SYMBOL LED 672 -288 R270
WINDOW 0 72 32 VTop 2
WINDOW 3 0 32 VBottom 2
SYMATTR InstName LED
SYMATTR Value LXK2-PW14
SYMBOL e2 1648 -176 R0
SYMATTR InstName Voltage-Controlled_Voltage-Source
SYMATTR Value 5
TEXT -200 -24 VRight 2 ;Solar Panel + MPPT
TEXT 160 336 Left 2 ;BMS
TEXT 16 256 Left 2 ;14.8V (i.e. four 3.7V)\nLi-ion Battery
TEXT 360 -256 Left 2 ;.op
TEXT 280 256 Left 2 ;7.5A, 12V-output\nVoltage Regulator
TEXT 664 256 Left 2 ;3A, 5V-output\nVoltage Regulator
TEXT 904 608 Left 2 ;Motion Detector
TEXT 1096 -192 Left 2 ;Light Detector
TEXT 880 344 VRight 2 ;Vref
TEXT 360 -296 Left 2 !.tran 10
